IEEE_118_bus_test_system.m
%        IEEE 118-BUS TEST SYSTEM (American Electric Power)
%        Bus Bus  Voltage Angle   ---Load---- -------Generator----- Static Mvar
%        No  code Mag.     rad    MW    Mvar      MW      Mvar          Qmin Qmax    +Qc/-Ql     Area

busdata=[1   1    0.955    0.186  51.0  27.0      0.0     0.0         -5.0    15.0       0.0        1       
         2   0    0.971    0.113  20.0  9.0       0.0     0.0          0.0     0.0       0.0        1
         3   0    0.968    0.144  39.0  10.0      0.0     0.0          0.0     0.0       0.0        1
         4   2    0.998    0.118  30.0  12.0     -9.0     0.0       -300.0   300.0       0.0        1
         5   0    1.002    0.124   0.0   0.0      0.0     0.0          0.0     0.0      -0.40       1
         6   2    0.990    0.088  52.0  22.0      0.0     0.0        -13.0    50.0       0.0        1
         7   0    0.989    0.084  19.0   2.0      0.0     0.0          0.0     0.0       0.0        1
         8   2    1.015    0.177   0.0   0.0    -28.0     0.0       -300.0   300.0       0.0        1
         9   0    1.043    0.286   0.0   0.0      0.0     0.0          0.0     0.0       0.0        1
        10   2    1.050    0.400   0.0   0.0    450.0     0.0       -147.0   200.0       0.0        1
        11   0    0.985    0.083  70.0  23.0      0.0     0.0          0.0     0.0       0.0        1
        12   2    0.990    0.082  47.0  10.0     85.0     0.0        -35.0   120.0       0.0        1
        13   0    0.968    0.044  34.0  16.0      0.0     0.0          0.0     0.0       0.0        1
        14   0    0.984    0.048  14.0   1.0      0.0     0.0          0.0     0.0       0.0        1
        15   2    0.970   -0.015  90.0  30.0      0.0     0.0        -10.0    30.0       0.0        13
        16   0    0.984    0.050  25.0  10.0      0.0     0.0          0.0     0.0       0.0        1
        17   0    0.995    0.023  11.0   3.0      0.0     0.0          0.0     0.0       0.0        123
        18   2    0.973   -0.013  60.0  34.0      0.0     0.0        -16.0    50.0       0.0        3
        19   2    0.963   -0.023  45.0  25.0      0.0     0.0         -8.0    24.0       0.0        3
        20   0    0.958   -0.027  18.0   3.0      0.0     0.0          0.0     0.0       0.0        3
        21   0    0.959   -0.014  14.0   8.0      0.0     0.0          0.0     0.0       0.0        3
        22   0    0.970    0.012  10.0   5.0      0.0     0.0          0.0     0.0       0.0        3
        23   0    1.000    0.071   7.0   3.0      0.0     0.0          0.0     0.0       0.0        23
        24   2    0.992    0.039   0.0   0.0    -13.0     0.0       -300.0   300.0       0.0        3
        25   2    1.050    0.200   0.0   0.0    220.0     0.0        -47.0   140.0       0.0        2
        26   2    1.015    0.238   0.0   0.0    314.0     0.0      -1000.0  1000.0       0.0        2
        27   2    0.968    0.012  62.0  13.0     -9.0     0.0       -300.0   300.0       0.0        2
        28   0    0.962   -0.010  17.0   7.0      0.0     0.0          0.0     0.0       0.0        2
        29   0    0.963   -0.020  24.0   4.0      0.0     0.0          0.0     0.0       0.0        2
        30   0    0.968    0.101   0.0   0.0      0.0     0.0          0.0     0.0       0.0        123
        31   2    0.967   -0.016  43.0  27.0      7.0     0.0       -300.0   300.0       0.0        2
        32   2    0.964    0.002  59.0  23.0      0.0     0.0        -14.0    42.0       0.0        2
        33   0    0.972   -0.058  23.0   9.0    -46.0     0.0          0.0     0.0       0.0        3
        34   2    0.986   -0.019  59.0  26.0      0.0     0.0         -8.0    24.0       0.14       3
        35   0    0.981   -0.037  33.0   9.0    -59.0     0.0          0.0     0.0       0.0        3
        36   2    0.980   -0.034  31.0  17.0      0.0     0.0         -8.0    24.0       0.0        3
        37   0    0.992   -0.008   0.0   0.0      0.0     0.0          0.0     0.0      -0.25       3
        38   0    0.962    0.043   0.0   0.0      0.0     0.0          0.0     0.0       0.0        3
        39   0    0.970    0.042  27.0  11.0     19.0     0.0          0.0     0.0       0.0        3
        40   2    0.970    0.072  20.0  23.0      0.0     0.0       -300.0   300.0       0.0        3
        41   0    0.967    0.093  37.0  10.0      0.0     0.0          0.0     0.0       0.0        3
        42   2    0.985    0.197  37.0  23.0    204.0     0.0       -300.0   300.0       0.0        3
        43   0    0.978   -0.027  18.0   7.0      0.0     0.0          0.0     0.0       0.0        3
        44   0    0.985    0.001  16.0   8.0      0.0     0.0          0.0     0.0       0.10       3
        45   0    0.987    0.025  53.0  22.0      0.0     0.0          0.0     0.0       0.10       3
        46   2    1.005    0.053  28.0  10.0      0.0     0.0       -100.0   100.0       0.10       3
        47   0    1.017    0.085  34.0   0.0     48.0     0.0          0.0     0.0       0.0        3
        48   0    1.021    0.095  20.0  11.0      0.0     0.0          0.0     0.0       0.15       3
        49   2    1.025    0.114  87.0  30.0      0.0     0.0        -85.0   210.0       0.0        34
        50   0    1.001    0.141  17.0   4.0      0.0     0.0          0.0     0.0       0.0        34
        51   0    0.967    0.383  17.0   8.0      0.0     0.0          0.0     0.0       0.0        4
        52   0    0.957    0.412  18.0   5.0    115.0     0.0          0.0     0.0       0.0        4
        53   0    0.946    0.329  23.0  11.0      0.0     0.0          0.0     0.0       0.0        4
        54   2    0.955    0.289 113.0  32.0    160.0     0.0       -300.0   300.0       0.0        4
        55   2    0.952    0.280  63.0  22.0      0.0     0.0         -8.0    23.0       0.0        4
        56   2    0.954    0.286  84.0  18.0      0.0     0.0         15.0    -8.0       0.0        4
        57   0    0.971    0.218  12.0   3.0      0.0     0.0          0.0     0.0       0.0        4
        58   0    0.959    0.497  12.0   3.0    391.0     0.0          0.0     0.0       0.0        4
        59   2    0.985    0.239 277.0 113.0    392.0     0.0        -60.0   180.0       0.0        4
        60   0    0.993    0.217  78.0   3.0      0.0     0.0          0.0     0.0       0.0        4
        61   2    0.995    0.215   0.0   0.0      0.0     0.0       -100.0   300.0       0.0        4
        62   2    0.998    0.263  77.0  14.0    516.0     0.0        -20.0    20.0       0.0        4
        63   0    0.969    0.193   0.0   0.0      0.0     0.0          0.0     0.0       0.0        4
        64   0    0.984    0.168   0.0   0.0      0.0     0.0          0.0     0.0       0.0        4
        65   2    1.005    0.077   0.0   0.0    -12.0     0.0        -67.0   200.0       0.0        34
        66   2    1.050    0.105  39.0  18.0     -6.0     0.0        -67.0   200.0       0.0        4
        67   0    1.020    0.165  28.0   7.0      0.0     0.0          0.0     0.0       0.0        4
        68   0    1.003    0.025   0.0   0.0      0.0     0.0          0.0     0.0       0.0        3
        69   2    1.035   -0.017   0.0   0.0      0.0     0.0       -300.0   300.0       0.0        3
        70   2    0.984   -0.077  66.0  20.0      0.0     0.0        -10.0    32.0       0.0        3  
        71   0    0.987   -0.068   0.0   0.0      0.0     0.0          0.0     0.0       0.0        3 
        72   2    0.980   -0.015   0.0   0.0      0.0     0.0       -100.0   100.0       0.0        3
        73   2    0.991   -0.069   0.0   0.0      0.0     0.0       -100.0   100.0       0.0        3
        74   2    0.958   -0.115  68.0  27.0      0.0     0.0         -6.0     9.0       0.12       3
        75   0    0.967   -0.104  47.0  11.0      0.0     0.0          0.0     0.0       0.0        3
        76   2    0.943   -0.132  68.0  36.0      0.0     0.0         -8.0    23.0       0.0        3
        77   2    1.006   -0.067  61.0  28.0      0.0     0.0        -20.0    70.0       0.0        35
        78   0    1.003   -0.069  71.0  26.0      0.0     0.0          0.0     0.0       0.0        3
        79   0    1.009   -0.055  39.0  32.0      0.0     0.0          0.0     0.0       0.20       3
        80   2    1.040    0.003 130.0  26.0    477.0     0.0       -165.0   280.0       0.0        35
        81   0    0.997    0.017   0.0   0.0      0.0     0.0          0.0     0.0       0.0        3
        82   0    0.989   -0.051  54.0  27.0      0.0     0.0          0.0     0.0       0.20       5
        83   0    0.985   -0.021  20.0  10.0      0.0     0.0          0.0     0.0       0.10       5
        84   0    0.980    0.035  11.0   7.0      0.0     0.0          0.0     0.0       0.0        5
        85   2    0.985    0.068  24.0  15.0      0.0     0.0         -8.0    23.0       0.0        5
        86   0    0.987    0.036  21.0  10.0      0.0     0.0          0.0     0.0       0.0        5
        87   2    1.015    0.032   0.0   0.0      0.0     0.0       -100.0  1000.0       0.0        5
        88   0    0.987    0.136  48.0  10.0      0.0     0.0          0.0     0.0       0.0        5
        89   2    1.005    0.215   0.0   0.0    607.0     0.0       -210.0   300.0       0.0        5
        90   2    0.985    0.024  78.0  42.0    -85.0     0.0       -300.0   300.0       0.0        5
        91   2    0.980    0.003   0.0   0.0    -10.0     0.0       -100.0   100.0       0.0        5
        92   2    0.993   -0.020  65.0  10.0      0.0     0.0         -3.0     9.0       0.0        5
        93   0    0.987   -0.047  12.0   7.0      0.0     0.0          0.0     0.0       0.0        5
        94   0    0.991   -0.063  30.0  16.0      0.0     0.0          0.0     0.0       0.0        5
        95   0    0.981   -0.067  42.0  31.0      0.0     0.0          0.0     0.0       0.0        5
        96   0    0.993   -0.055  38.0  15.0      0.0     0.0          0.0     0.0       0.0        5
        97   0    1.011   -0.032  15.0   9.0      0.0     0.0          0.0     0.0       0.0        5
        98   0    1.024   -0.049  34.0   8.0      0.0     0.0          0.0     0.0       0.0        5
        99   2    1.010   -0.072   0.0   0.0    -42.0     0.0       -100.0   100.0       0.0        5
       100   2    1.017   -0.072  37.0  18.0    252.0     0.0        -50.0   155.0       0.0        56
       101   0    0.993   -0.064  22.0  15.0      0.0     0.0          0.0     0.0       0.0        5
       102   0    0.991   -0.037   5.0   3.0      0.0     0.0          0.0     0.0       0.0        5
       103   2    1.001   -0.128  23.0  16.0     40.0     0.0        -15.0    40.0       0.0        6
       104   2    0.971   -0.171  38.0  25.0      0.0     0.0         -8.0    23.0       0.0        6
       105   2    0.965   -0.190  31.0  26.0      0.0     0.0         -8.0    23.0       0.20       6
       106   0    0.962   -0.197  43.0  16.0      0.0     0.0          0.0     0.0       0.0        6
       107   2    0.952   -0.237  28.0  12.0    -22.0     0.0       -200.0   200.0       0.06       6
       108   0    0.967   -0.206   2.0   1.0      0.0     0.0          0.0     0.0       0.0        6
       109   0    0.967   -0.212   8.0   3.0      0.0     0.0          0.0     0.0       0.0        6
       110   2    0.973   -0.223  39.0  30.0      0.0     0.0         -8.0    23.0       0.06       6
       111   2    0.980   -0.196   0.0   0.0     36.0     0.0       -100.0  1000.0       0.0        6
       112   2    0.975   -0.269  25.0  13.0    -43.0     0.0       -100.0  1000.0       0.0        6
       113   2    0.993    0.019   0.0   0.0     -6.0     0.0       -100.0   200.0       0.0        2
       114   0    0.960   -0.003   8.0   3.0      0.0     0.0          0.0     0.0       0.0        2
       115   0    0.960   -0.002  22.0   7.0      0.0     0.0          0.0     0.0       0.0        2
       116   2    1.005    0.018   0.0   0.0   -184.0     0.0      -1000.0  1000.0       0.0        3
       117   0    0.974    0.058  20.0   8.0      0.0     0.0          0.0     0.0       0.0        1        
       118   0    0.949   -0.126  33.0  15.0      0.0     0.0          0.0     0.0       0.0        3];

%                                        Line code
%          Bus  bus     R         X         1/2 B   = 1 for lines
%          nl   nr     p.u.      p.u.       p.u.     > 1 or < 1 tr. tap at bus nl
linedata=[ 1    2    0.03030   0.09990    0.02540/2       1       
           1    3    0.01290   0.04240    0.01082/2       1       
           4    5    0.00176   0.00798    0.00210/2       1       
           3    5    0.02410   0.10800    0.02840/2       1       
           5    6    0.01190   0.05400    0.01426/2       1       
           6    7    0.00459   0.02080    0.00550/2       1      
           8    9    0.00244   0.03050    1.16200/2       1      
           8    5    0.00000   0.02670    0.0           0.985    
           9   10    0.00258   0.03220    1.23000/2       1      
           4   11    0.02090   0.06880    0.01748/2       1       
           5   11    0.02030   0.06820    0.01738/2       1       
          11   12    0.00595   0.01960    0.00502/2       1       
           2   12    0.01870   0.06160    0.01572/2       1     
           3   12    0.04840   0.16000    0.04060/2       1      
           7   12    0.00862   0.03400    0.00874/2       1       
          11   13    0.02225   0.07310    0.01876/2       1      
          12   14    0.02150   0.07070    0.01816/2       1       
          13   15    0.07440   0.24440    0.06268/2       1       
          14   15    0.05950   0.19500    0.05020/2       1      
          12   16    0.02120   0.08340    0.02140/2       1      
          15   17    0.01320   0.04370    0.04440/2       1       
          16   17    0.04540   0.18010    0.04660/2       1      
          17   18    0.01230   0.05050    0.01298/2       1      
          18   19    0.01119   0.04930    0.01142/2       1       
          19   20    0.02520   0.11700    0.02980/2       1       
          15   19    0.01200   0.03940    0.01010/2       1      
          20   21    0.01830   0.08490    0.02160/2       1       
          21   22    0.02090   0.09700    0.02460/2       1      
          22   23    0.03420   0.15900    0.04040/2       1      
          23   24    0.01350   0.04920    0.04980/2       1       
          23   25    0.01560   0.08000    0.08640/2       1      
          26   25    0.00000   0.03820    0.0           0.960     
          25   27    0.03180   0.16300    0.17640/2       1       
          27   28    0.01913   0.08550    0.02160/2       1       
          28   29    0.02370   0.09430    0.02380/2       1      
          30   17    0.00000   0.03880    0.0           0.960     
           8   30    0.00431   0.05040    0.51400/2       1       
          26   30    0.00799   0.08600    0.90800/2       1       
          17   31    0.04740   0.15630    0.03990/2       1       
          29   31    0.01080   0.03310    0.00830/2       1       
          23   32    0.03170   0.11530    0.11730/2       1       
          31   32    0.02980   0.09850    0.02510/2       1     
          27   32    0.02290   0.07550    0.01926/2       1      
          15   33    0.03800   0.12440    0.03194/2       1      
          19   34    0.07520   0.24700    0.06320/2       1      
          35   36    0.00224   0.01020    0.00268/2       1     
          35   37    0.01100   0.04970    0.01318/2       1      
          33   37    0.04150   0.14200    0.03660/2       1      
          34   36    0.00871   0.02680    0.00568/2       1       
          34   37    0.00256   0.00940    0.00984/2       1       
          38   37    0.00000   0.03750    0.0           0.935     
          37   39    0.03210   0.10600    0.02700/2       1       
          37   40    0.05930   0.16800    0.04200/2       1       
          30   38    0.00464   0.05400    0.42200/2       1       
          39   40    0.01840   0.06050    0.01552/2       1       
          40   41    0.01450   0.04870    0.01222/2       1       
          40   42    0.05550   0.18300    0.04660/2       1       
          41   42    0.04100   0.13500    0.03440/2       1       
          43   44    0.06080   0.24540    0.06068/2       1       
          34   43    0.04130   0.16810    0.04226/2       1      
          44   45    0.02240   0.09010    0.02240/2       1      
          45   46    0.04000   0.13560    0.03320/2       1       
          46   47    0.03800   0.12700    0.03160/2       1       
          46   48    0.06010   0.18900    0.04720/2       1       
          47   49    0.01910   0.06250    0.01604/2       1       
         %42   49    0.07150   0.32300    0.08600/2       1       
          42   49    0.07150   0.32300    0.08600/2       1       
          45   49    0.06840   0.18600    0.04440/2       1       
          48   49    0.01790   0.05050    0.01258/2       1       
          49   50    0.02670   0.07520    0.01874/2       1       
          49   51    0.04860   0.13700    0.03420/2       1       
          51   52    0.02030   0.05880    0.01396/2       1       
          52   53    0.04050   0.16350    0.04058/2       1      
          53   54    0.02630   0.12200    0.03100/2       1       
         %49   54    0.07300   0.28900    0.07380/2       1      
          49   54    0.08690   0.29100    0.07300/2       1      
          54   55    0.01690   0.07070    0.02020/2       1      
          54   56    0.00275   0.00955    0.00732/2       1       
          55   56    0.00488   0.01510    0.00374/2       1       
          56   57    0.03430   0.09660    0.02420/2       1       
          50   57    0.04740   0.13400    0.03320/2       1
          56   58    0.03430   0.09660    0.02420/2       1
          51   58    0.02550   0.07190    0.01788/2       1       
          54   59    0.05030   0.22930    0.05980/2       1       
         %56   59    0.08250   0.25100    0.05690/2       1       
          56   59    0.08030   0.23900    0.05360/2       1  